/*--------------------------------*- C++ -*----------------------------------*\
| =========                 |                                                 |
| \\      /  F ield         | OpenFOAM: The Open Source CFD Toolbox           |
|  \\    /   O peration     | Version:  2412                                  |
|   \\  /    A nd           | Website:  www.openfoam.com                      |
|    \\/     M anipulation  |                                                 |
\*---------------------------------------------------------------------------*/
FoamFile
{
    version     2.0;
    format      ascii;
    arch        "LSB;label=32;scalar=64";
    class       polyBoundaryMesh;
    location    "constant/polyMesh";
    object      boundary;
}
// * * * * * * * * * * * * * * * * * * * * * * * * * * * * * * * * * * * * * //

8
(
    wall-4
    {
        type            wall;
        inGroups        1(wall);
        nFaces          10;
        startFace       211;
    }
    velocity-inlet-5
    {
        type            patch;
        nFaces          0;
        startFace       221;
    }
    velocity-inlet-6
    {
        type            patch;
        nFaces          0;
        startFace       221;
    }
    pressure-outlet-7
    {
        type            patch;
        nFaces          0;
        startFace       221;
    }
    wall-8
    {
        type            wall;
        inGroups        1(wall);
        nFaces          10;
        startFace       221;
    }
    frontAndBackPlanes
    {
        type            empty;
        inGroups        1(empty);
        nFaces          308;
        startFace       231;
    }
    procBoundary5to0
    {
        type            processor;
        inGroups        1(processor);
        nFaces          11;
        startFace       539;
        matchTolerance  0.0001;
        transform       unknown;
        myProcNo        5;
        neighbProcNo    0;
    }
    procBoundary5to4
    {
        type            processor;
        inGroups        1(processor);
        nFaces          9;
        startFace       550;
        matchTolerance  0.0001;
        transform       unknown;
        myProcNo        5;
        neighbProcNo    4;
    }
)

// ************************************************************************* //
