/*--------------------------------*- C++ -*----------------------------------*\
| =========                 |                                                 |
| \\      /  F ield         | OpenFOAM: The Open Source CFD Toolbox           |
|  \\    /   O peration     | Version:  2412                                  |
|   \\  /    A nd           | Website:  www.openfoam.com                      |
|    \\/     M anipulation  |                                                 |
\*---------------------------------------------------------------------------*/
FoamFile
{
    version     2.0;
    format      ascii;
    arch        "LSB;label=32;scalar=64";
    class       polyBoundaryMesh;
    location    "constant/polyMesh";
    object      boundary;
}
// * * * * * * * * * * * * * * * * * * * * * * * * * * * * * * * * * * * * * //

10
(
    wall-4
    {
        type            wall;
        inGroups        1(wall);
        nFaces          8;
        startFace       41;
    }
    velocity-inlet-5
    {
        type            patch;
        nFaces          0;
        startFace       49;
    }
    velocity-inlet-6
    {
        type            patch;
        nFaces          0;
        startFace       49;
    }
    pressure-outlet-7
    {
        type            patch;
        nFaces          1;
        startFace       49;
    }
    wall-8
    {
        type            wall;
        inGroups        1(wall);
        nFaces          2;
        startFace       50;
    }
    frontAndBackPlanes
    {
        type            empty;
        inGroups        1(empty);
        nFaces          76;
        startFace       52;
    }
    procBoundary13to12
    {
        type            processor;
        inGroups        1(processor);
        nFaces          10;
        startFace       128;
        matchTolerance  0.0001;
        transform       unknown;
        myProcNo        13;
        neighbProcNo    12;
    }
    procBoundary13to14
    {
        type            processor;
        inGroups        1(processor);
        nFaces          4;
        startFace       138;
        matchTolerance  0.0001;
        transform       unknown;
        myProcNo        13;
        neighbProcNo    14;
    }
    procBoundary13to15
    {
        type            processor;
        inGroups        1(processor);
        nFaces          1;
        startFace       142;
        matchTolerance  0.0001;
        transform       unknown;
        myProcNo        13;
        neighbProcNo    15;
    }
    procBoundary13to17
    {
        type            processor;
        inGroups        1(processor);
        nFaces          6;
        startFace       143;
        matchTolerance  0.0001;
        transform       unknown;
        myProcNo        13;
        neighbProcNo    17;
    }
)

// ************************************************************************* //
