/*--------------------------------*- C++ -*----------------------------------*\
| =========                 |                                                 |
| \\      /  F ield         | OpenFOAM: The Open Source CFD Toolbox           |
|  \\    /   O peration     | Version:  2412                                  |
|   \\  /    A nd           | Website:  www.openfoam.com                      |
|    \\/     M anipulation  |                                                 |
\*---------------------------------------------------------------------------*/
FoamFile
{
    version     2.0;
    format      ascii;
    arch        "LSB;label=32;scalar=64";
    class       polyBoundaryMesh;
    location    "constant/polyMesh";
    object      boundary;
}
// * * * * * * * * * * * * * * * * * * * * * * * * * * * * * * * * * * * * * //

10
(
    wall-4
    {
        type            wall;
        inGroups        1(wall);
        nFaces          4;
        startFace       49;
    }
    velocity-inlet-5
    {
        type            patch;
        nFaces          0;
        startFace       53;
    }
    velocity-inlet-6
    {
        type            patch;
        nFaces          0;
        startFace       53;
    }
    pressure-outlet-7
    {
        type            patch;
        nFaces          0;
        startFace       53;
    }
    wall-8
    {
        type            wall;
        inGroups        1(wall);
        nFaces          0;
        startFace       53;
    }
    frontAndBackPlanes
    {
        type            empty;
        inGroups        1(empty);
        nFaces          78;
        startFace       53;
    }
    procBoundary8to6
    {
        type            processor;
        inGroups        1(processor);
        nFaces          5;
        startFace       131;
        matchTolerance  0.0001;
        transform       unknown;
        myProcNo        8;
        neighbProcNo    6;
    }
    procBoundary8to7
    {
        type            processor;
        inGroups        1(processor);
        nFaces          5;
        startFace       136;
        matchTolerance  0.0001;
        transform       unknown;
        myProcNo        8;
        neighbProcNo    7;
    }
    procBoundary8to9
    {
        type            processor;
        inGroups        1(processor);
        nFaces          1;
        startFace       141;
        matchTolerance  0.0001;
        transform       unknown;
        myProcNo        8;
        neighbProcNo    9;
    }
    procBoundary8to10
    {
        type            processor;
        inGroups        1(processor);
        nFaces          4;
        startFace       142;
        matchTolerance  0.0001;
        transform       unknown;
        myProcNo        8;
        neighbProcNo    10;
    }
)

// ************************************************************************* //
