/*--------------------------------*- C++ -*----------------------------------*\
| =========                 |                                                 |
| \\      /  F ield         | OpenFOAM: The Open Source CFD Toolbox           |
|  \\    /   O peration     | Version:  2412                                  |
|   \\  /    A nd           | Website:  www.openfoam.com                      |
|    \\/     M anipulation  |                                                 |
\*---------------------------------------------------------------------------*/
FoamFile
{
    version     2.0;
    format      ascii;
    arch        "LSB;label=32;scalar=64";
    class       polyBoundaryMesh;
    location    "constant/polyMesh";
    object      boundary;
}
// * * * * * * * * * * * * * * * * * * * * * * * * * * * * * * * * * * * * * //

8
(
    wall-4
    {
        type            wall;
        inGroups        1(wall);
        nFaces          0;
        startFace       46;
    }
    velocity-inlet-5
    {
        type            patch;
        nFaces          0;
        startFace       46;
    }
    velocity-inlet-6
    {
        type            patch;
        nFaces          0;
        startFace       46;
    }
    pressure-outlet-7
    {
        type            patch;
        nFaces          7;
        startFace       46;
    }
    wall-8
    {
        type            wall;
        inGroups        1(wall);
        nFaces          5;
        startFace       53;
    }
    frontAndBackPlanes
    {
        type            empty;
        inGroups        1(empty);
        nFaces          76;
        startFace       58;
    }
    procBoundary14to12
    {
        type            processor;
        inGroups        1(processor);
        nFaces          6;
        startFace       134;
        matchTolerance  0.0001;
        transform       unknown;
        myProcNo        14;
        neighbProcNo    12;
    }
    procBoundary14to13
    {
        type            processor;
        inGroups        1(processor);
        nFaces          4;
        startFace       140;
        matchTolerance  0.0001;
        transform       unknown;
        myProcNo        14;
        neighbProcNo    13;
    }
)

// ************************************************************************* //
