/*--------------------------------*- C++ -*----------------------------------*\
| =========                 |                                                 |
| \\      /  F ield         | OpenFOAM: The Open Source CFD Toolbox           |
|  \\    /   O peration     | Version:  2412                                  |
|   \\  /    A nd           | Website:  www.openfoam.com                      |
|    \\/     M anipulation  |                                                 |
\*---------------------------------------------------------------------------*/
FoamFile
{
    version     2.0;
    format      ascii;
    arch        "LSB;label=32;scalar=64";
    class       polyBoundaryMesh;
    location    "constant/polyMesh";
    object      boundary;
}
// * * * * * * * * * * * * * * * * * * * * * * * * * * * * * * * * * * * * * //

10
(
    wall-4
    {
        type            wall;
        inGroups        1(wall);
        nFaces          9;
        startFace       47;
    }
    velocity-inlet-5
    {
        type            patch;
        nFaces          0;
        startFace       56;
    }
    velocity-inlet-6
    {
        type            patch;
        nFaces          0;
        startFace       56;
    }
    pressure-outlet-7
    {
        type            patch;
        nFaces          0;
        startFace       56;
    }
    wall-8
    {
        type            wall;
        inGroups        1(wall);
        nFaces          0;
        startFace       56;
    }
    frontAndBackPlanes
    {
        type            empty;
        inGroups        1(empty);
        nFaces          76;
        startFace       56;
    }
    procBoundary12to13
    {
        type            processor;
        inGroups        1(processor);
        nFaces          5;
        startFace       132;
        matchTolerance  0.0001;
        transform       unknown;
        myProcNo        12;
        neighbProcNo    13;
    }
    procBoundary12to14
    {
        type            processor;
        inGroups        1(processor);
        nFaces          3;
        startFace       137;
        matchTolerance  0.0001;
        transform       unknown;
        myProcNo        12;
        neighbProcNo    14;
    }
    procBoundary12to15
    {
        type            processor;
        inGroups        1(processor);
        nFaces          1;
        startFace       140;
        matchTolerance  0.0001;
        transform       unknown;
        myProcNo        12;
        neighbProcNo    15;
    }
    procBoundary12to22
    {
        type            processor;
        inGroups        1(processor);
        nFaces          2;
        startFace       141;
        matchTolerance  0.0001;
        transform       unknown;
        myProcNo        12;
        neighbProcNo    22;
    }
)

// ************************************************************************* //
