/*--------------------------------*- C++ -*----------------------------------*\
| =========                 |                                                 |
| \\      /  F ield         | OpenFOAM: The Open Source CFD Toolbox           |
|  \\    /   O peration     | Version:  2412                                  |
|   \\  /    A nd           | Website:  www.openfoam.com                      |
|    \\/     M anipulation  |                                                 |
\*---------------------------------------------------------------------------*/
FoamFile
{
    version     2.0;
    format      ascii;
    arch        "LSB;label=32;scalar=64";
    class       polyBoundaryMesh;
    location    "constant/polyMesh";
    object      boundary;
}
// * * * * * * * * * * * * * * * * * * * * * * * * * * * * * * * * * * * * * //

10
(
    wall-4
    {
        type            wall;
        inGroups        1(wall);
        nFaces          8;
        startFace       46;
    }
    velocity-inlet-5
    {
        type            patch;
        nFaces          0;
        startFace       54;
    }
    velocity-inlet-6
    {
        type            patch;
        nFaces          0;
        startFace       54;
    }
    pressure-outlet-7
    {
        type            patch;
        nFaces          1;
        startFace       54;
    }
    wall-8
    {
        type            wall;
        inGroups        1(wall);
        nFaces          0;
        startFace       55;
    }
    frontAndBackPlanes
    {
        type            empty;
        inGroups        1(empty);
        nFaces          76;
        startFace       55;
    }
    procBoundary15to12
    {
        type            processor;
        inGroups        1(processor);
        nFaces          1;
        startFace       131;
        matchTolerance  0.0001;
        transform       unknown;
        myProcNo        15;
        neighbProcNo    12;
    }
    procBoundary15to13
    {
        type            processor;
        inGroups        1(processor);
        nFaces          3;
        startFace       132;
        matchTolerance  0.0001;
        transform       unknown;
        myProcNo        15;
        neighbProcNo    13;
    }
    procBoundary15to16
    {
        type            processor;
        inGroups        1(processor);
        nFaces          4;
        startFace       135;
        matchTolerance  0.0001;
        transform       unknown;
        myProcNo        15;
        neighbProcNo    16;
    }
    procBoundary15to17
    {
        type            processor;
        inGroups        1(processor);
        nFaces          5;
        startFace       139;
        matchTolerance  0.0001;
        transform       unknown;
        myProcNo        15;
        neighbProcNo    17;
    }
)

// ************************************************************************* //
