/*--------------------------------*- C++ -*----------------------------------*\
| =========                 |                                                 |
| \\      /  F ield         | OpenFOAM: The Open Source CFD Toolbox           |
|  \\    /   O peration     | Version:  2412                                  |
|   \\  /    A nd           | Website:  www.openfoam.com                      |
|    \\/     M anipulation  |                                                 |
\*---------------------------------------------------------------------------*/
FoamFile
{
    version     2.0;
    format      ascii;
    arch        "LSB;label=32;scalar=64";
    class       polyBoundaryMesh;
    location    "constant/polyMesh";
    object      boundary;
}
// * * * * * * * * * * * * * * * * * * * * * * * * * * * * * * * * * * * * * //

9
(
    wall-4
    {
        type            wall;
        inGroups        1(wall);
        nFaces          0;
        startFace       49;
    }
    velocity-inlet-5
    {
        type            patch;
        nFaces          0;
        startFace       49;
    }
    velocity-inlet-6
    {
        type            patch;
        nFaces          0;
        startFace       49;
    }
    pressure-outlet-7
    {
        type            patch;
        nFaces          0;
        startFace       49;
    }
    wall-8
    {
        type            wall;
        inGroups        1(wall);
        nFaces          6;
        startFace       49;
    }
    frontAndBackPlanes
    {
        type            empty;
        inGroups        1(empty);
        nFaces          76;
        startFace       55;
    }
    procBoundary19to18
    {
        type            processor;
        inGroups        1(processor);
        nFaces          3;
        startFace       131;
        matchTolerance  0.0001;
        transform       unknown;
        myProcNo        19;
        neighbProcNo    18;
    }
    procBoundary19to20
    {
        type            processor;
        inGroups        1(processor);
        nFaces          4;
        startFace       134;
        matchTolerance  0.0001;
        transform       unknown;
        myProcNo        19;
        neighbProcNo    20;
    }
    procBoundary19to22
    {
        type            processor;
        inGroups        1(processor);
        nFaces          3;
        startFace       138;
        matchTolerance  0.0001;
        transform       unknown;
        myProcNo        19;
        neighbProcNo    22;
    }
)

// ************************************************************************* //
