/*--------------------------------*- C++ -*----------------------------------*\
| =========                 |                                                 |
| \\      /  F ield         | OpenFOAM: The Open Source CFD Toolbox           |
|  \\    /   O peration     | Version:  2412                                  |
|   \\  /    A nd           | Website:  www.openfoam.com                      |
|    \\/     M anipulation  |                                                 |
\*---------------------------------------------------------------------------*/
FoamFile
{
    version     2.0;
    format      ascii;
    arch        "LSB;label=32;scalar=64";
    class       polyBoundaryMesh;
    location    "constant/polyMesh";
    object      boundary;
}
// * * * * * * * * * * * * * * * * * * * * * * * * * * * * * * * * * * * * * //

9
(
    wall-4
    {
        type            wall;
        inGroups        1(wall);
        nFaces          0;
        startFace       50;
    }
    velocity-inlet-5
    {
        type            patch;
        nFaces          0;
        startFace       50;
    }
    velocity-inlet-6
    {
        type            patch;
        nFaces          0;
        startFace       50;
    }
    pressure-outlet-7
    {
        type            patch;
        nFaces          0;
        startFace       50;
    }
    wall-8
    {
        type            wall;
        inGroups        1(wall);
        nFaces          0;
        startFace       50;
    }
    frontAndBackPlanes
    {
        type            empty;
        inGroups        1(empty);
        nFaces          78;
        startFace       50;
    }
    procBoundary5to0
    {
        type            processor;
        inGroups        1(processor);
        nFaces          4;
        startFace       128;
        matchTolerance  0.0001;
        transform       unknown;
        myProcNo        5;
        neighbProcNo    0;
    }
    procBoundary5to3
    {
        type            processor;
        inGroups        1(processor);
        nFaces          7;
        startFace       132;
        matchTolerance  0.0001;
        transform       unknown;
        myProcNo        5;
        neighbProcNo    3;
    }
    procBoundary5to4
    {
        type            processor;
        inGroups        1(processor);
        nFaces          6;
        startFace       139;
        matchTolerance  0.0001;
        transform       unknown;
        myProcNo        5;
        neighbProcNo    4;
    }
)

// ************************************************************************* //
