/*--------------------------------*- C++ -*----------------------------------*\
| =========                 |                                                 |
| \\      /  F ield         | OpenFOAM: The Open Source CFD Toolbox           |
|  \\    /   O peration     | Version:  2412                                  |
|   \\  /    A nd           | Website:  www.openfoam.com                      |
|    \\/     M anipulation  |                                                 |
\*---------------------------------------------------------------------------*/
FoamFile
{
    version     2.0;
    format      ascii;
    arch        "LSB;label=32;scalar=64";
    class       polyBoundaryMesh;
    location    "constant/polyMesh";
    object      boundary;
}
// * * * * * * * * * * * * * * * * * * * * * * * * * * * * * * * * * * * * * //

11
(
    wall-4
    {
        type            wall;
        inGroups        1(wall);
        nFaces          5;
        startFace       48;
    }
    velocity-inlet-5
    {
        type            patch;
        nFaces          0;
        startFace       53;
    }
    velocity-inlet-6
    {
        type            patch;
        nFaces          0;
        startFace       53;
    }
    pressure-outlet-7
    {
        type            patch;
        nFaces          0;
        startFace       53;
    }
    wall-8
    {
        type            wall;
        inGroups        1(wall);
        nFaces          0;
        startFace       53;
    }
    frontAndBackPlanes
    {
        type            empty;
        inGroups        1(empty);
        nFaces          76;
        startFace       53;
    }
    procBoundary21to6
    {
        type            processor;
        inGroups        1(processor);
        nFaces          2;
        startFace       129;
        matchTolerance  0.0001;
        transform       unknown;
        myProcNo        21;
        neighbProcNo    6;
    }
    procBoundary21to18
    {
        type            processor;
        inGroups        1(processor);
        nFaces          1;
        startFace       131;
        matchTolerance  0.0001;
        transform       unknown;
        myProcNo        21;
        neighbProcNo    18;
    }
    procBoundary21to19
    {
        type            processor;
        inGroups        1(processor);
        nFaces          4;
        startFace       132;
        matchTolerance  0.0001;
        transform       unknown;
        myProcNo        21;
        neighbProcNo    19;
    }
    procBoundary21to22
    {
        type            processor;
        inGroups        1(processor);
        nFaces          3;
        startFace       136;
        matchTolerance  0.0001;
        transform       unknown;
        myProcNo        21;
        neighbProcNo    22;
    }
    procBoundary21to23
    {
        type            processor;
        inGroups        1(processor);
        nFaces          3;
        startFace       139;
        matchTolerance  0.0001;
        transform       unknown;
        myProcNo        21;
        neighbProcNo    23;
    }
)

// ************************************************************************* //
