/*--------------------------------*- C++ -*----------------------------------*\
| =========                 |                                                 |
| \\      /  F ield         | OpenFOAM: The Open Source CFD Toolbox           |
|  \\    /   O peration     | Version:  2412                                  |
|   \\  /    A nd           | Website:  www.openfoam.com                      |
|    \\/     M anipulation  |                                                 |
\*---------------------------------------------------------------------------*/
FoamFile
{
    version     2.0;
    format      ascii;
    arch        "LSB;label=32;scalar=64";
    class       polyBoundaryMesh;
    location    "constant/polyMesh";
    object      boundary;
}
// * * * * * * * * * * * * * * * * * * * * * * * * * * * * * * * * * * * * * //

11
(
    wall-4
    {
        type            wall;
        inGroups        1(wall);
        nFaces          0;
        startFace       48;
    }
    velocity-inlet-5
    {
        type            patch;
        nFaces          0;
        startFace       48;
    }
    velocity-inlet-6
    {
        type            patch;
        nFaces          0;
        startFace       48;
    }
    pressure-outlet-7
    {
        type            patch;
        nFaces          0;
        startFace       48;
    }
    wall-8
    {
        type            wall;
        inGroups        1(wall);
        nFaces          0;
        startFace       48;
    }
    frontAndBackPlanes
    {
        type            empty;
        inGroups        1(empty);
        nFaces          76;
        startFace       48;
    }
    procBoundary19to6
    {
        type            processor;
        inGroups        1(processor);
        nFaces          4;
        startFace       124;
        matchTolerance  0.0001;
        transform       unknown;
        myProcNo        19;
        neighbProcNo    6;
    }
    procBoundary19to7
    {
        type            processor;
        inGroups        1(processor);
        nFaces          1;
        startFace       128;
        matchTolerance  0.0001;
        transform       unknown;
        myProcNo        19;
        neighbProcNo    7;
    }
    procBoundary19to18
    {
        type            processor;
        inGroups        1(processor);
        nFaces          4;
        startFace       129;
        matchTolerance  0.0001;
        transform       unknown;
        myProcNo        19;
        neighbProcNo    18;
    }
    procBoundary19to20
    {
        type            processor;
        inGroups        1(processor);
        nFaces          5;
        startFace       133;
        matchTolerance  0.0001;
        transform       unknown;
        myProcNo        19;
        neighbProcNo    20;
    }
    procBoundary19to21
    {
        type            processor;
        inGroups        1(processor);
        nFaces          4;
        startFace       138;
        matchTolerance  0.0001;
        transform       unknown;
        myProcNo        19;
        neighbProcNo    21;
    }
)

// ************************************************************************* //
