/*--------------------------------*- C++ -*----------------------------------*\
| =========                 |                                                 |
| \\      /  F ield         | OpenFOAM: The Open Source CFD Toolbox           |
|  \\    /   O peration     | Version:  2412                                  |
|   \\  /    A nd           | Website:  www.openfoam.com                      |
|    \\/     M anipulation  |                                                 |
\*---------------------------------------------------------------------------*/
FoamFile
{
    version     2.0;
    format      ascii;
    arch        "LSB;label=32;scalar=64";
    class       polyBoundaryMesh;
    location    "constant/polyMesh";
    object      boundary;
}
// * * * * * * * * * * * * * * * * * * * * * * * * * * * * * * * * * * * * * //

10
(
    wall-4
    {
        type            wall;
        inGroups        1(wall);
        nFaces          9;
        startFace       46;
    }
    velocity-inlet-5
    {
        type            patch;
        nFaces          0;
        startFace       55;
    }
    velocity-inlet-6
    {
        type            patch;
        nFaces          0;
        startFace       55;
    }
    pressure-outlet-7
    {
        type            patch;
        nFaces          0;
        startFace       55;
    }
    wall-8
    {
        type            wall;
        inGroups        1(wall);
        nFaces          0;
        startFace       55;
    }
    frontAndBackPlanes
    {
        type            empty;
        inGroups        1(empty);
        nFaces          76;
        startFace       55;
    }
    procBoundary7to6
    {
        type            processor;
        inGroups        1(processor);
        nFaces          3;
        startFace       131;
        matchTolerance  0.0001;
        transform       unknown;
        myProcNo        7;
        neighbProcNo    6;
    }
    procBoundary7to8
    {
        type            processor;
        inGroups        1(processor);
        nFaces          6;
        startFace       134;
        matchTolerance  0.0001;
        transform       unknown;
        myProcNo        7;
        neighbProcNo    8;
    }
    procBoundary7to21
    {
        type            processor;
        inGroups        1(processor);
        nFaces          2;
        startFace       140;
        matchTolerance  0.0001;
        transform       unknown;
        myProcNo        7;
        neighbProcNo    21;
    }
    procBoundary7to23
    {
        type            processor;
        inGroups        1(processor);
        nFaces          2;
        startFace       142;
        matchTolerance  0.0001;
        transform       unknown;
        myProcNo        7;
        neighbProcNo    23;
    }
)

// ************************************************************************* //
