/*--------------------------------*- C++ -*----------------------------------*\
| =========                 |                                                 |
| \\      /  F ield         | OpenFOAM: The Open Source CFD Toolbox           |
|  \\    /   O peration     | Version:  2412                                  |
|   \\  /    A nd           | Website:  www.openfoam.com                      |
|    \\/     M anipulation  |                                                 |
\*---------------------------------------------------------------------------*/
FoamFile
{
    version     2.0;
    format      ascii;
    arch        "LSB;label=32;scalar=64";
    class       polyBoundaryMesh;
    location    "constant/polyMesh";
    object      boundary;
}
// * * * * * * * * * * * * * * * * * * * * * * * * * * * * * * * * * * * * * //

11
(
    wall-4
    {
        type            wall;
        inGroups        1(wall);
        nFaces          5;
        startFace       43;
    }
    velocity-inlet-5
    {
        type            patch;
        nFaces          0;
        startFace       48;
    }
    velocity-inlet-6
    {
        type            patch;
        nFaces          0;
        startFace       48;
    }
    pressure-outlet-7
    {
        type            patch;
        nFaces          0;
        startFace       48;
    }
    wall-8
    {
        type            wall;
        inGroups        1(wall);
        nFaces          0;
        startFace       48;
    }
    frontAndBackPlanes
    {
        type            empty;
        inGroups        1(empty);
        nFaces          76;
        startFace       48;
    }
    procBoundary10to3
    {
        type            processor;
        inGroups        1(processor);
        nFaces          2;
        startFace       124;
        matchTolerance  0.0001;
        transform       unknown;
        myProcNo        10;
        neighbProcNo    3;
    }
    procBoundary10to5
    {
        type            processor;
        inGroups        1(processor);
        nFaces          4;
        startFace       126;
        matchTolerance  0.0001;
        transform       unknown;
        myProcNo        10;
        neighbProcNo    5;
    }
    procBoundary10to6
    {
        type            processor;
        inGroups        1(processor);
        nFaces          3;
        startFace       130;
        matchTolerance  0.0001;
        transform       unknown;
        myProcNo        10;
        neighbProcNo    6;
    }
    procBoundary10to9
    {
        type            processor;
        inGroups        1(processor);
        nFaces          7;
        startFace       133;
        matchTolerance  0.0001;
        transform       unknown;
        myProcNo        10;
        neighbProcNo    9;
    }
    procBoundary10to11
    {
        type            processor;
        inGroups        1(processor);
        nFaces          7;
        startFace       140;
        matchTolerance  0.0001;
        transform       unknown;
        myProcNo        10;
        neighbProcNo    11;
    }
)

// ************************************************************************* //
